DONOR
  ATLAS   

  5  4  0  0  0  0  0  0  0  0  1 V2000
   40.4813   25.8125   12.5516 C   0  0  0  0  0  0  0  0  0  0  0  0
   40.4813   25.8125   12.5516 C   0  0  0  0  0  0  0  0  0  0  0  0
   40.4813   25.8125   12.5516 N   0  0  0  0  0  0  0  0  0  0  0  0
   40.4813   25.8125   12.5516 O   0  0  0  0  0  0  0  0  0  0  0  0
   39.4997   26.0213   12.6524 H   0  0  0  0  0  0  0  0  0  0  0  0
  1  3  2  0  0  0  0
  1  4  1  0  0  0  0
  2  4  1  0  0  0  0
  3  5  1  0  0  0  0
M  END
> <CLUSTER_SIZE>
1575

> <HB_ENERGY>
-2.023351

$$$$
DONOR
  ATLAS   

  5  4  0  0  0  0  0  0  0  0  1 V2000
   43.2205   25.5637   12.1874 C   0  0  0  0  0  0  0  0  0  0  0  0
   43.2205   25.5637   12.1874 C   0  0  0  0  0  0  0  0  0  0  0  0
   43.2205   25.5637   12.1874 N   0  0  0  0  0  0  0  0  0  0  0  0
   43.2205   25.5637   12.1874 O   0  0  0  0  0  0  0  0  0  0  0  0
   44.1839   25.8552   12.2567 H   0  0  0  0  0  0  0  0  0  0  0  0
  1  3  2  0  0  0  0
  1  4  1  0  0  0  0
  2  4  1  0  0  0  0
  3  5  1  0  0  0  0
M  END
> <CLUSTER_SIZE>
984

> <HB_ENERGY>
-1.624888

$$$$
DONOR
  ATLAS   

  5  4  0  0  0  0  0  0  0  0  1 V2000
   42.8945   27.9274   13.3150 C   0  0  0  0  0  0  0  0  0  0  0  0
   42.8945   27.9274   13.3150 C   0  0  0  0  0  0  0  0  0  0  0  0
   42.8945   27.9274   13.3150 N   0  0  0  0  0  0  0  0  0  0  0  0
   42.8945   27.9274   13.3150 O   0  0  0  0  0  0  0  0  0  0  0  0
   43.9028   27.9056   13.3826 H   0  0  0  0  0  0  0  0  0  0  0  0
  1  3  2  0  0  0  0
  1  4  1  0  0  0  0
  2  4  1  0  0  0  0
  3  5  1  0  0  0  0
M  END
> <CLUSTER_SIZE>
507

> <HB_ENERGY>
-1.595666

$$$$
DONOR
  ATLAS   

  5  4  0  0  0  0  0  0  0  0  1 V2000
   44.0960   25.7750    9.2177 C   0  0  0  0  0  0  0  0  0  0  0  0
   44.0960   25.7750    9.2177 C   0  0  0  0  0  0  0  0  0  0  0  0
   44.0960   25.7750    9.2177 N   0  0  0  0  0  0  0  0  0  0  0  0
   44.0960   25.7750    9.2177 O   0  0  0  0  0  0  0  0  0  0  0  0
   43.9085   24.8884    8.8655 H   0  0  0  0  0  0  0  0  0  0  0  0
  1  3  2  0  0  0  0
  1  4  1  0  0  0  0
  2  4  1  0  0  0  0
  3  5  1  0  0  0  0
M  END
> <CLUSTER_SIZE>
460

> <HB_ENERGY>
-1.371248

$$$$
DONOR
  ATLAS   

  5  4  0  0  0  0  0  0  0  0  1 V2000
   43.5117   24.6904   14.0903 C   0  0  0  0  0  0  0  0  0  0  0  0
   43.5117   24.6904   14.0903 C   0  0  0  0  0  0  0  0  0  0  0  0
   43.5117   24.6904   14.0903 N   0  0  0  0  0  0  0  0  0  0  0  0
   43.5117   24.6904   14.0903 O   0  0  0  0  0  0  0  0  0  0  0  0
   43.2529   24.0929   14.8601 H   0  0  0  0  0  0  0  0  0  0  0  0
  1  3  2  0  0  0  0
  1  4  1  0  0  0  0
  2  4  1  0  0  0  0
  3  5  1  0  0  0  0
M  END
> <CLUSTER_SIZE>
208

> <HB_ENERGY>
-1.260540

$$$$
DONOR
  ATLAS   

  5  4  0  0  0  0  0  0  0  0  1 V2000
   39.9880   29.1231   13.6132 C   0  0  0  0  0  0  0  0  0  0  0  0
   39.9880   29.1231   13.6132 C   0  0  0  0  0  0  0  0  0  0  0  0
   39.9880   29.1231   13.6132 N   0  0  0  0  0  0  0  0  0  0  0  0
   39.9880   29.1231   13.6132 O   0  0  0  0  0  0  0  0  0  0  0  0
   39.5691   29.0480   14.4888 H   0  0  0  0  0  0  0  0  0  0  0  0
  1  3  2  0  0  0  0
  1  4  1  0  0  0  0
  2  4  1  0  0  0  0
  3  5  1  0  0  0  0
M  END
> <CLUSTER_SIZE>
426

> <HB_ENERGY>
-1.175139

$$$$
DONOR
  ATLAS   

  5  4  0  0  0  0  0  0  0  0  1 V2000
   38.7477   28.9376   11.2268 C   0  0  0  0  0  0  0  0  0  0  0  0
   38.7477   28.9376   11.2268 C   0  0  0  0  0  0  0  0  0  0  0  0
   38.7477   28.9376   11.2268 N   0  0  0  0  0  0  0  0  0  0  0  0
   38.7477   28.9376   11.2268 O   0  0  0  0  0  0  0  0  0  0  0  0
   38.5450   28.3232   12.0004 H   0  0  0  0  0  0  0  0  0  0  0  0
  1  3  2  0  0  0  0
  1  4  1  0  0  0  0
  2  4  1  0  0  0  0
  3  5  1  0  0  0  0
M  END
> <CLUSTER_SIZE>
1580

> <HB_ENERGY>
-1.172476

$$$$
DONOR
  ATLAS   

  5  4  0  0  0  0  0  0  0  0  1 V2000
   38.0842   30.4249   10.3116 C   0  0  0  0  0  0  0  0  0  0  0  0
   38.0842   30.4249   10.3116 C   0  0  0  0  0  0  0  0  0  0  0  0
   38.0842   30.4249   10.3116 N   0  0  0  0  0  0  0  0  0  0  0  0
   38.0842   30.4249   10.3116 O   0  0  0  0  0  0  0  0  0  0  0  0
   37.7931   30.9914   11.0933 H   0  0  0  0  0  0  0  0  0  0  0  0
  1  3  2  0  0  0  0
  1  4  1  0  0  0  0
  2  4  1  0  0  0  0
  3  5  1  0  0  0  0
M  END
> <CLUSTER_SIZE>
301

> <HB_ENERGY>
-0.953098

$$$$
