ACCEPTOR
  ATLAS   

  2  1  0  0  0  0  0  0  0  0  1 V2000
   40.8876   25.4571   14.7410 O   0  0  0  0  0  0  0  0  0  0  0  0
   40.8876   25.4571   14.7410 C   0  0  0  0  0  0  0  0  0  0  0  0
  1  2  2  0  0  0  0
M  END
> <CLUSTER_SIZE>
490

> <HB_ENERGY>
-2.023351

$$$$
ACCEPTOR
  ATLAS   

  2  1  0  0  0  0  0  0  0  0  1 V2000
   43.2597   24.6206   14.2217 O   0  0  0  0  0  0  0  0  0  0  0  0
   43.2597   24.6206   14.2217 C   0  0  0  0  0  0  0  0  0  0  0  0
  1  2  2  0  0  0  0
M  END
> <CLUSTER_SIZE>
50

> <HB_ENERGY>
-1.624888

$$$$
